<?xml version="1.0" encoding="UTF-8"?>

<!-- generated on 2025-10-09 20:13:57.149101 by randomTrips.py UNKNOWN
<configuration>
    <net-file value="vn.net.xml"/>
    <output-trip-file value="vn.car.trips.xml"/>
    <prefix value="car_"/>
    <trip-attributes value="type='car'"/>
    <period value="4.0"/>
</configuration>
-->

<routes xmlns:xsi="http://www.w3.org/2001/XMLSchema-instance" xsi:noNamespaceSchemaLocation="http://sumo.dlr.de/xsd/routes_file.xsd">
    <trip id="car_0" depart="0.00" from="J9_to_J8" to="J1_to_J2" type='car'/>
    <trip id="car_1" depart="4.00" from="J4_to_J7" to="J3_to_J2" type='car'/>
    <trip id="car_2" depart="8.00" from="N_out_2_to_J2" to="J7_to_J4" type='car'/>
    <trip id="car_3" depart="12.00" from="N_out_7s_to_J7" to="J1_to_N_out_1w" type='car'/>
    <trip id="car_4" depart="16.00" from="J6_to_J5" to="J1_to_J4" type='car'/>
    <trip id="car_5" depart="20.00" from="J4_to_J1" to="J5_to_J6" type='car'/>
    <trip id="car_6" depart="24.00" from="J1_to_J2" to="J2_to_N_out_2" type='car'/>
    <trip id="car_7" depart="28.00" from="J9_to_J8" to="J5_to_J8" type='car'/>
    <trip id="car_8" depart="32.00" from="J4_to_J1" to="J6_to_J5" type='car'/>
    <trip id="car_9" depart="36.00" from="N_out_4_to_J4" to="J1_to_J2" type='car'/>
    <trip id="car_10" depart="40.00" from="N_out_4_to_J4" to="J7_to_J8" type='car'/>
    <trip id="car_11" depart="44.00" from="J5_to_J6" to="J2_to_J3" type='car'/>
    <trip id="car_12" depart="48.00" from="N_out_9_to_J9" to="J4_to_J1" type='car'/>
    <trip id="car_13" depart="52.00" from="J2_to_J3" to="J1_to_N_out_1w" type='car'/>
    <trip id="car_14" depart="56.00" from="N_out_6_to_J6" to="J6_to_J5" type='car'/>
    <trip id="car_15" depart="60.00" from="N_out_4_to_J4" to="J7_to_N_out_7" type='car'/>
    <trip id="car_16" depart="64.00" from="J8_to_J5" to="J9_to_N_out_9s" type='car'/>
    <trip id="car_17" depart="68.00" from="J5_to_J8" to="J5_to_J8" type='car'/>
    <trip id="car_18" depart="72.00" from="N_out_4_to_J4" to="J6_to_J9" type='car'/>
    <trip id="car_19" depart="76.00" from="N_out_7_to_J7" to="J6_to_J3" type='car'/>
    <trip id="car_20" depart="80.00" from="N_out_1w_to_J1" to="J1_to_J4" type='car'/>
    <trip id="car_21" depart="84.00" from="J4_to_J5" to="J3_to_N_out_3" type='car'/>
    <trip id="car_22" depart="88.00" from="J2_to_J1" to="J3_to_J2" type='car'/>
    <trip id="car_23" depart="92.00" from="J2_to_J3" to="J3_to_N_out_3" type='car'/>
    <trip id="car_24" depart="96.00" from="J9_to_J6" to="J4_to_J5" type='car'/>
    <trip id="car_25" depart="100.00" from="J5_to_J8" to="J2_to_N_out_2" type='car'/>
    <trip id="car_26" depart="104.00" from="J4_to_J7" to="J9_to_J8" type='car'/>
    <trip id="car_27" depart="108.00" from="J9_to_J8" to="J6_to_J5" type='car'/>
    <trip id="car_28" depart="112.00" from="J3_to_J6" to="J7_to_N_out_7" type='car'/>
    <trip id="car_29" depart="116.00" from="J3_to_J2" to="J4_to_J5" type='car'/>
    <trip id="car_30" depart="120.00" from="N_out_9s_to_J9" to="J6_to_N_out_6" type='car'/>
    <trip id="car_31" depart="124.00" from="J8_to_J7" to="J7_to_J4" type='car'/>
    <trip id="car_32" depart="128.00" from="N_out_6_to_J6" to="J7_to_N_out_7s" type='car'/>
    <trip id="car_33" depart="132.00" from="J4_to_J5" to="J1_to_J4" type='car'/>
    <trip id="car_34" depart="136.00" from="J5_to_J4" to="J3_to_J6" type='car'/>
    <trip id="car_35" depart="140.00" from="J4_to_J1" to="J9_to_J8" type='car'/>
    <trip id="car_36" depart="144.00" from="N_out_7_to_J7" to="J3_to_N_out_3e" type='car'/>
    <trip id="car_37" depart="148.00" from="J9_to_J8" to="J4_to_J7" type='car'/>
    <trip id="car_38" depart="152.00" from="N_out_7s_to_J7" to="J5_to_J2" type='car'/>
    <trip id="car_39" depart="156.00" from="J4_to_J7" to="J3_to_J2" type='car'/>
    <trip id="car_40" depart="160.00" from="J8_to_J7" to="J3_to_J6" type='car'/>
    <trip id="car_41" depart="164.00" from="J8_to_J9" to="J9_to_J6" type='car'/>
    <trip id="car_42" depart="168.00" from="J6_to_J3" to="J2_to_N_out_2" type='car'/>
    <trip id="car_43" depart="172.00" from="N_out_9s_to_J9" to="J5_to_J6" type='car'/>
    <trip id="car_44" depart="176.00" from="J2_to_J3" to="J1_to_J4" type='car'/>
    <trip id="car_45" depart="180.00" from="J2_to_J3" to="J6_to_J9" type='car'/>
    <trip id="car_46" depart="184.00" from="N_out_3e_to_J3" to="J4_to_N_out_4" type='car'/>
    <trip id="car_47" depart="188.00" from="J2_to_J1" to="J4_to_J5" type='car'/>
    <trip id="car_48" depart="192.00" from="N_out_9s_to_J9" to="J5_to_J8" type='car'/>
    <trip id="car_49" depart="196.00" from="N_out_9_to_J9" to="J8_to_J9" type='car'/>
    <trip id="car_50" depart="200.00" from="J1_to_J2" to="J7_to_J8" type='car'/>
    <trip id="car_51" depart="204.00" from="N_out_1_to_J1" to="J5_to_J8" type='car'/>
    <trip id="car_52" depart="208.00" from="J4_to_J7" to="J6_to_N_out_6" type='car'/>
    <trip id="car_53" depart="212.00" from="J2_to_J5" to="J4_to_N_out_4" type='car'/>
    <trip id="car_54" depart="216.00" from="J6_to_J9" to="J9_to_N_out_9" type='car'/>
    <trip id="car_55" depart="220.00" from="N_out_7_to_J7" to="J3_to_J6" type='car'/>
    <trip id="car_56" depart="224.00" from="J7_to_J8" to="J2_to_J5" type='car'/>
    <trip id="car_57" depart="228.00" from="N_out_7s_to_J7" to="J8_to_N_out_8" type='car'/>
    <trip id="car_58" depart="232.00" from="J5_to_J2" to="J6_to_N_out_6" type='car'/>
    <trip id="car_59" depart="236.00" from="J8_to_J9" to="J2_to_J3" type='car'/>
    <trip id="car_60" depart="240.00" from="N_out_3_to_J3" to="J5_to_J8" type='car'/>
    <trip id="car_61" depart="244.00" from="N_out_3e_to_J3" to="J5_to_J8" type='car'/>
    <trip id="car_62" depart="248.00" from="J1_to_J2" to="J3_to_N_out_3e" type='car'/>
    <trip id="car_63" depart="252.00" from="J1_to_J2" to="J9_to_J8" type='car'/>
    <trip id="car_64" depart="256.00" from="N_out_7_to_J7" to="J8_to_J7" type='car'/>
    <trip id="car_65" depart="260.00" from="J5_to_J4" to="J1_to_N_out_1" type='car'/>
    <trip id="car_66" depart="264.00" from="N_out_7_to_J7" to="J9_to_N_out_9" type='car'/>
    <trip id="car_67" depart="268.00" from="J2_to_J3" to="J5_to_J4" type='car'/>
    <trip id="car_68" depart="272.00" from="J2_to_J1" to="J7_to_N_out_7s" type='car'/>
    <trip id="car_69" depart="276.00" from="N_out_3_to_J3" to="J2_to_J1" type='car'/>
    <trip id="car_70" depart="280.00" from="J7_to_J4" to="J5_to_J8" type='car'/>
    <trip id="car_71" depart="284.00" from="J4_to_J7" to="J8_to_N_out_8" type='car'/>
    <trip id="car_72" depart="288.00" from="J6_to_J5" to="J2_to_N_out_2" type='car'/>
    <trip id="car_73" depart="292.00" from="J8_to_J5" to="J7_to_N_out_7" type='car'/>
    <trip id="car_74" depart="296.00" from="J4_to_J1" to="J3_to_N_out_3e" type='car'/>
    <trip id="car_75" depart="300.00" from="N_out_9s_to_J9" to="J6_to_N_out_6" type='car'/>
    <trip id="car_76" depart="304.00" from="J6_to_J5" to="J5_to_J6" type='car'/>
    <trip id="car_77" depart="308.00" from="J2_to_J5" to="J3_to_J2" type='car'/>
    <trip id="car_78" depart="312.00" from="J5_to_J6" to="J6_to_J5" type='car'/>
    <trip id="car_79" depart="316.00" from="J4_to_J5" to="J2_to_N_out_2" type='car'/>
    <trip id="car_80" depart="320.00" from="J2_to_J1" to="J6_to_J9" type='car'/>
    <trip id="car_81" depart="324.00" from="J4_to_J5" to="J9_to_J6" type='car'/>
    <trip id="car_82" depart="328.00" from="N_out_6_to_J6" to="J1_to_N_out_1" type='car'/>
    <trip id="car_83" depart="332.00" from="J4_to_J5" to="J7_to_J4" type='car'/>
    <trip id="car_84" depart="336.00" from="J4_to_J1" to="J2_to_J1" type='car'/>
    <trip id="car_85" depart="340.00" from="N_out_8_to_J8" to="J6_to_J3" type='car'/>
    <trip id="car_86" depart="344.00" from="J7_to_J4" to="J8_to_J5" type='car'/>
    <trip id="car_87" depart="348.00" from="N_out_4_to_J4" to="J2_to_J5" type='car'/>
    <trip id="car_88" depart="352.00" from="J2_to_J3" to="J4_to_N_out_4" type='car'/>
    <trip id="car_89" depart="356.00" from="J6_to_J5" to="J5_to_J2" type='car'/>
    <trip id="car_90" depart="360.00" from="N_out_2_to_J2" to="J7_to_J4" type='car'/>
    <trip id="car_91" depart="364.00" from="N_out_9s_to_J9" to="J1_to_N_out_1w" type='car'/>
    <trip id="car_92" depart="368.00" from="J6_to_J3" to="J4_to_J1" type='car'/>
    <trip id="car_93" depart="372.00" from="N_out_7_to_J7" to="J3_to_J2" type='car'/>
    <trip id="car_94" depart="376.00" from="J3_to_J6" to="J5_to_J2" type='car'/>
    <trip id="car_95" depart="380.00" from="J6_to_J5" to="J3_to_N_out_3" type='car'/>
    <trip id="car_96" depart="384.00" from="J4_to_J5" to="J9_to_J8" type='car'/>
    <trip id="car_97" depart="388.00" from="J6_to_J5" to="J8_to_N_out_8" type='car'/>
    <trip id="car_98" depart="392.00" from="J8_to_J5" to="J1_to_J4" type='car'/>
    <trip id="car_99" depart="396.00" from="N_out_9s_to_J9" to="J8_to_J9" type='car'/>
    <trip id="car_100" depart="400.00" from="N_out_9_to_J9" to="J9_to_J8" type='car'/>
    <trip id="car_101" depart="404.00" from="N_out_6_to_J6" to="J2_to_J3" type='car'/>
    <trip id="car_102" depart="408.00" from="J7_to_J4" to="J2_to_N_out_2" type='car'/>
    <trip id="car_103" depart="412.00" from="J6_to_J3" to="J1_to_N_out_1" type='car'/>
    <trip id="car_104" depart="416.00" from="J5_to_J8" to="J9_to_N_out_9s" type='car'/>
    <trip id="car_105" depart="420.00" from="J4_to_J7" to="J8_to_J5" type='car'/>
    <trip id="car_106" depart="424.00" from="J6_to_J9" to="J4_to_N_out_4" type='car'/>
    <trip id="car_107" depart="428.00" from="N_out_9_to_J9" to="J9_to_N_out_9s" type='car'/>
    <trip id="car_108" depart="432.00" from="J8_to_J7" to="J7_to_J8" type='car'/>
    <trip id="car_109" depart="436.00" from="J3_to_J2" to="J3_to_N_out_3" type='car'/>
    <trip id="car_110" depart="440.00" from="N_out_9_to_J9" to="J6_to_J3" type='car'/>
    <trip id="car_111" depart="444.00" from="J8_to_J5" to="J7_to_N_out_7" type='car'/>
    <trip id="car_112" depart="448.00" from="J2_to_J1" to="J6_to_J5" type='car'/>
    <trip id="car_113" depart="452.00" from="J7_to_J8" to="J8_to_J9" type='car'/>
    <trip id="car_114" depart="456.00" from="J3_to_J2" to="J9_to_N_out_9" type='car'/>
    <trip id="car_115" depart="460.00" from="J2_to_J1" to="J2_to_J5" type='car'/>
    <trip id="car_116" depart="464.00" from="J8_to_J9" to="J7_to_J4" type='car'/>
    <trip id="car_117" depart="468.00" from="J4_to_J5" to="J2_to_J1" type='car'/>
    <trip id="car_118" depart="472.00" from="N_out_7s_to_J7" to="J3_to_J2" type='car'/>
    <trip id="car_119" depart="476.00" from="J8_to_J9" to="J6_to_J9" type='car'/>
    <trip id="car_120" depart="480.00" from="J6_to_J5" to="J6_to_J5" type='car'/>
    <trip id="car_121" depart="484.00" from="J7_to_J8" to="J9_to_J8" type='car'/>
    <trip id="car_122" depart="488.00" from="J4_to_J1" to="J7_to_J8" type='car'/>
    <trip id="car_123" depart="492.00" from="J4_to_J5" to="J4_to_J7" type='car'/>
    <trip id="car_124" depart="496.00" from="N_out_1_to_J1" to="J3_to_N_out_3" type='car'/>
    <trip id="car_125" depart="500.00" from="J5_to_J4" to="J7_to_N_out_7s" type='car'/>
    <trip id="car_126" depart="504.00" from="J2_to_J1" to="J5_to_J2" type='car'/>
    <trip id="car_127" depart="508.00" from="N_out_9s_to_J9" to="J9_to_N_out_9s" type='car'/>
    <trip id="car_128" depart="512.00" from="J2_to_J1" to="J2_to_N_out_2" type='car'/>
    <trip id="car_129" depart="516.00" from="J4_to_J7" to="J9_to_J8" type='car'/>
    <trip id="car_130" depart="520.00" from="N_out_7_to_J7" to="J8_to_N_out_8" type='car'/>
    <trip id="car_131" depart="524.00" from="J5_to_J8" to="J2_to_J3" type='car'/>
    <trip id="car_132" depart="528.00" from="N_out_6_to_J6" to="J7_to_J8" type='car'/>
    <trip id="car_133" depart="532.00" from="J9_to_J6" to="J9_to_N_out_9s" type='car'/>
    <trip id="car_134" depart="536.00" from="J9_to_J8" to="J1_to_J2" type='car'/>
    <trip id="car_135" depart="540.00" from="N_out_4_to_J4" to="J3_to_N_out_3" type='car'/>
    <trip id="car_136" depart="544.00" from="J9_to_J8" to="J9_to_J8" type='car'/>
    <trip id="car_137" depart="548.00" from="J2_to_J5" to="J2_to_J1" type='car'/>
    <trip id="car_138" depart="552.00" from="J2_to_J3" to="J5_to_J8" type='car'/>
    <trip id="car_139" depart="556.00" from="J4_to_J7" to="J6_to_J5" type='car'/>
    <trip id="car_140" depart="560.00" from="N_out_1w_to_J1" to="J2_to_N_out_2" type='car'/>
    <trip id="car_141" depart="564.00" from="J9_to_J6" to="J3_to_J6" type='car'/>
    <trip id="car_142" depart="568.00" from="J7_to_J4" to="J9_to_J6" type='car'/>
    <trip id="car_143" depart="572.00" from="N_out_6_to_J6" to="J1_to_N_out_1w" type='car'/>
    <trip id="car_144" depart="576.00" from="J6_to_J5" to="J3_to_J6" type='car'/>
    <trip id="car_145" depart="580.00" from="J1_to_J2" to="J7_to_N_out_7s" type='car'/>
    <trip id="car_146" depart="584.00" from="J9_to_J6" to="J3_to_J6" type='car'/>
    <trip id="car_147" depart="588.00" from="N_out_2_to_J2" to="J5_to_J8" type='car'/>
    <trip id="car_148" depart="592.00" from="J6_to_J5" to="J1_to_J2" type='car'/>
    <trip id="car_149" depart="596.00" from="J2_to_J1" to="J8_to_N_out_8" type='car'/>
    <trip id="car_150" depart="600.00" from="N_out_7s_to_J7" to="J5_to_J8" type='car'/>
    <trip id="car_151" depart="604.00" from="N_out_6_to_J6" to="J6_to_J3" type='car'/>
    <trip id="car_152" depart="608.00" from="J3_to_J2" to="J2_to_J1" type='car'/>
    <trip id="car_153" depart="612.00" from="J5_to_J4" to="J9_to_J6" type='car'/>
    <trip id="car_154" depart="616.00" from="N_out_3e_to_J3" to="J8_to_J9" type='car'/>
    <trip id="car_155" depart="620.00" from="N_out_7s_to_J7" to="J2_to_N_out_2" type='car'/>
    <trip id="car_156" depart="624.00" from="J4_to_J5" to="J1_to_N_out_1w" type='car'/>
    <trip id="car_157" depart="628.00" from="N_out_3e_to_J3" to="J8_to_N_out_8" type='car'/>
    <trip id="car_158" depart="632.00" from="J6_to_J3" to="J6_to_J9" type='car'/>
    <trip id="car_159" depart="636.00" from="J3_to_J2" to="J9_to_J8" type='car'/>
    <trip id="car_160" depart="640.00" from="N_out_7_to_J7" to="J9_to_N_out_9s" type='car'/>
    <trip id="car_161" depart="644.00" from="N_out_4_to_J4" to="J8_to_N_out_8" type='car'/>
    <trip id="car_162" depart="648.00" from="J1_to_J2" to="J7_to_N_out_7" type='car'/>
    <trip id="car_163" depart="652.00" from="J5_to_J4" to="J9_to_J8" type='car'/>
    <trip id="car_164" depart="656.00" from="N_out_3e_to_J3" to="J8_to_N_out_8" type='car'/>
    <trip id="car_165" depart="660.00" from="N_out_4_to_J4" to="J3_to_J6" type='car'/>
    <trip id="car_166" depart="664.00" from="N_out_3e_to_J3" to="J1_to_N_out_1w" type='car'/>
    <trip id="car_167" depart="668.00" from="N_out_7_to_J7" to="J8_to_J9" type='car'/>
    <trip id="car_168" depart="672.00" from="J4_to_J5" to="J8_to_J7" type='car'/>
    <trip id="car_169" depart="676.00" from="J6_to_J9" to="J3_to_N_out_3" type='car'/>
    <trip id="car_170" depart="680.00" from="N_out_3e_to_J3" to="J3_to_J2" type='car'/>
    <trip id="car_171" depart="684.00" from="J1_to_J2" to="J2_to_J5" type='car'/>
    <trip id="car_172" depart="688.00" from="J5_to_J4" to="J8_to_N_out_8" type='car'/>
    <trip id="car_173" depart="692.00" from="N_out_9_to_J9" to="J3_to_N_out_3" type='car'/>
    <trip id="car_174" depart="696.00" from="J9_to_J8" to="J4_to_J7" type='car'/>
    <trip id="car_175" depart="700.00" from="N_out_9s_to_J9" to="J5_to_J8" type='car'/>
    <trip id="car_176" depart="704.00" from="N_out_8_to_J8" to="J2_to_J1" type='car'/>
    <trip id="car_177" depart="708.00" from="N_out_9_to_J9" to="J2_to_J5" type='car'/>
    <trip id="car_178" depart="712.00" from="N_out_9_to_J9" to="J3_to_J6" type='car'/>
    <trip id="car_179" depart="716.00" from="J2_to_J3" to="J4_to_N_out_4" type='car'/>
    <trip id="car_180" depart="720.00" from="N_out_2_to_J2" to="J3_to_N_out_3e" type='car'/>
    <trip id="car_181" depart="724.00" from="J8_to_J9" to="J5_to_J6" type='car'/>
    <trip id="car_182" depart="728.00" from="J5_to_J8" to="J6_to_J3" type='car'/>
    <trip id="car_183" depart="732.00" from="J4_to_J7" to="J7_to_J8" type='car'/>
    <trip id="car_184" depart="736.00" from="J1_to_J2" to="J9_to_J8" type='car'/>
    <trip id="car_185" depart="740.00" from="J8_to_J5" to="J7_to_J8" type='car'/>
    <trip id="car_186" depart="744.00" from="N_out_2_to_J2" to="J7_to_J4" type='car'/>
    <trip id="car_187" depart="748.00" from="J5_to_J8" to="J1_to_N_out_1" type='car'/>
    <trip id="car_188" depart="752.00" from="J9_to_J8" to="J3_to_N_out_3e" type='car'/>
    <trip id="car_189" depart="756.00" from="J5_to_J4" to="J8_to_J9" type='car'/>
    <trip id="car_190" depart="760.00" from="N_out_1w_to_J1" to="J3_to_N_out_3" type='car'/>
    <trip id="car_191" depart="764.00" from="J5_to_J4" to="J4_to_J7" type='car'/>
    <trip id="car_192" depart="768.00" from="J6_to_J3" to="J3_to_N_out_3" type='car'/>
    <trip id="car_193" depart="772.00" from="J2_to_J5" to="J4_to_N_out_4" type='car'/>
    <trip id="car_194" depart="776.00" from="N_out_8_to_J8" to="J7_to_J4" type='car'/>
    <trip id="car_195" depart="780.00" from="N_out_7s_to_J7" to="J6_to_J9" type='car'/>
    <trip id="car_196" depart="784.00" from="J5_to_J2" to="J5_to_J8" type='car'/>
    <trip id="car_197" depart="788.00" from="J1_to_J2" to="J3_to_N_out_3" type='car'/>
    <trip id="car_198" depart="792.00" from="J6_to_J5" to="J6_to_J3" type='car'/>
    <trip id="car_199" depart="796.00" from="J9_to_J8" to="J5_to_J2" type='car'/>
    <trip id="car_200" depart="800.00" from="J6_to_J5" to="J2_to_N_out_2" type='car'/>
    <trip id="car_201" depart="804.00" from="J7_to_J4" to="J9_to_J6" type='car'/>
    <trip id="car_202" depart="808.00" from="N_out_3e_to_J3" to="J2_to_J5" type='car'/>
    <trip id="car_203" depart="812.00" from="J2_to_J3" to="J5_to_J6" type='car'/>
    <trip id="car_204" depart="816.00" from="J9_to_J6" to="J4_to_J1" type='car'/>
    <trip id="car_205" depart="820.00" from="N_out_4_to_J4" to="J7_to_N_out_7s" type='car'/>
    <trip id="car_206" depart="824.00" from="N_out_1_to_J1" to="J3_to_J2" type='car'/>
    <trip id="car_207" depart="828.00" from="J4_to_J1" to="J1_to_J2" type='car'/>
    <trip id="car_208" depart="832.00" from="J4_to_J5" to="J5_to_J4" type='car'/>
    <trip id="car_209" depart="836.00" from="N_out_6_to_J6" to="J1_to_N_out_1" type='car'/>
    <trip id="car_210" depart="840.00" from="J6_to_J3" to="J6_to_J9" type='car'/>
    <trip id="car_211" depart="844.00" from="J3_to_J6" to="J7_to_J8" type='car'/>
    <trip id="car_212" depart="848.00" from="J7_to_J4" to="J3_to_J2" type='car'/>
    <trip id="car_213" depart="852.00" from="J9_to_J8" to="J1_to_J2" type='car'/>
    <trip id="car_214" depart="856.00" from="N_out_3_to_J3" to="J7_to_N_out_7s" type='car'/>
    <trip id="car_215" depart="860.00" from="J2_to_J3" to="J4_to_N_out_4" type='car'/>
    <trip id="car_216" depart="864.00" from="J3_to_J6" to="J9_to_N_out_9" type='car'/>
    <trip id="car_217" depart="868.00" from="J7_to_J8" to="J1_to_J4" type='car'/>
    <trip id="car_218" depart="872.00" from="J4_to_J5" to="J8_to_J9" type='car'/>
    <trip id="car_219" depart="876.00" from="J6_to_J9" to="J8_to_J5" type='car'/>
    <trip id="car_220" depart="880.00" from="N_out_1_to_J1" to="J9_to_N_out_9s" type='car'/>
    <trip id="car_221" depart="884.00" from="J8_to_J9" to="J9_to_N_out_9" type='car'/>
    <trip id="car_222" depart="888.00" from="N_out_7s_to_J7" to="J6_to_J9" type='car'/>
    <trip id="car_223" depart="892.00" from="N_out_1w_to_J1" to="J5_to_J6" type='car'/>
    <trip id="car_224" depart="896.00" from="N_out_4_to_J4" to="J5_to_J8" type='car'/>
    <trip id="car_225" depart="900.00" from="N_out_7s_to_J7" to="J7_to_N_out_7" type='car'/>
    <trip id="car_226" depart="904.00" from="J7_to_J4" to="J3_to_J6" type='car'/>
    <trip id="car_227" depart="908.00" from="J4_to_J5" to="J6_to_J9" type='car'/>
    <trip id="car_228" depart="912.00" from="N_out_3_to_J3" to="J5_to_J6" type='car'/>
    <trip id="car_229" depart="916.00" from="J9_to_J6" to="J3_to_J6" type='car'/>
    <trip id="car_230" depart="920.00" from="J2_to_J1" to="J3_to_N_out_3" type='car'/>
    <trip id="car_231" depart="924.00" from="J4_to_J7" to="J3_to_N_out_3e" type='car'/>
    <trip id="car_232" depart="928.00" from="J8_to_J5" to="J2_to_J1" type='car'/>
    <trip id="car_233" depart="932.00" from="J4_to_J5" to="J7_to_J4" type='car'/>
    <trip id="car_234" depart="936.00" from="N_out_1w_to_J1" to="J1_to_N_out_1" type='car'/>
    <trip id="car_235" depart="940.00" from="J6_to_J3" to="J5_to_J8" type='car'/>
    <trip id="car_236" depart="944.00" from="J6_to_J3" to="J2_to_N_out_2" type='car'/>
    <trip id="car_237" depart="948.00" from="J6_to_J5" to="J9_to_J6" type='car'/>
    <trip id="car_238" depart="952.00" from="J8_to_J9" to="J7_to_J8" type='car'/>
    <trip id="car_239" depart="956.00" from="N_out_6_to_J6" to="J7_to_N_out_7s" type='car'/>
    <trip id="car_240" depart="960.00" from="J5_to_J8" to="J1_to_J2" type='car'/>
    <trip id="car_241" depart="964.00" from="J5_to_J6" to="J7_to_N_out_7s" type='car'/>
    <trip id="car_242" depart="968.00" from="N_out_6_to_J6" to="J9_to_N_out_9" type='car'/>
    <trip id="car_243" depart="972.00" from="J6_to_J5" to="J7_to_N_out_7" type='car'/>
    <trip id="car_244" depart="976.00" from="J8_to_J5" to="J6_to_J5" type='car'/>
    <trip id="car_245" depart="980.00" from="J4_to_J1" to="J2_to_N_out_2" type='car'/>
    <trip id="car_246" depart="984.00" from="J6_to_J5" to="J1_to_J4" type='car'/>
    <trip id="car_247" depart="988.00" from="J5_to_J6" to="J7_to_J4" type='car'/>
    <trip id="car_248" depart="992.00" from="J6_to_J3" to="J2_to_J3" type='car'/>
    <trip id="car_249" depart="996.00" from="J6_to_J9" to="J2_to_J1" type='car'/>
    <trip id="car_250" depart="1000.00" from="J9_to_J6" to="J1_to_J2" type='car'/>
    <trip id="car_251" depart="1004.00" from="J6_to_J3" to="J6_to_J3" type='car'/>
    <trip id="car_252" depart="1008.00" from="J1_to_J2" to="J6_to_N_out_6" type='car'/>
    <trip id="car_253" depart="1012.00" from="J2_to_J5" to="J5_to_J2" type='car'/>
    <trip id="car_254" depart="1016.00" from="J1_to_J4" to="J4_to_J5" type='car'/>
    <trip id="car_255" depart="1020.00" from="J4_to_J1" to="J3_to_N_out_3e" type='car'/>
    <trip id="car_256" depart="1024.00" from="N_out_3_to_J3" to="J4_to_J5" type='car'/>
    <trip id="car_257" depart="1028.00" from="N_out_3_to_J3" to="J8_to_J7" type='car'/>
    <trip id="car_258" depart="1032.00" from="J4_to_J7" to="J1_to_N_out_1" type='car'/>
    <trip id="car_259" depart="1036.00" from="J1_to_J2" to="J5_to_J8" type='car'/>
    <trip id="car_260" depart="1040.00" from="N_out_9s_to_J9" to="J4_to_J1" type='car'/>
    <trip id="car_261" depart="1044.00" from="J9_to_J8" to="J8_to_J5" type='car'/>
    <trip id="car_262" depart="1048.00" from="J9_to_J8" to="J7_to_N_out_7s" type='car'/>
    <trip id="car_263" depart="1052.00" from="N_out_9_to_J9" to="J2_to_N_out_2" type='car'/>
    <trip id="car_264" depart="1056.00" from="J1_to_J2" to="J2_to_J3" type='car'/>
    <trip id="car_265" depart="1060.00" from="J2_to_J5" to="J7_to_J4" type='car'/>
    <trip id="car_266" depart="1064.00" from="J8_to_J7" to="J2_to_N_out_2" type='car'/>
    <trip id="car_267" depart="1068.00" from="N_out_1w_to_J1" to="J7_to_N_out_7s" type='car'/>
    <trip id="car_268" depart="1072.00" from="J3_to_J6" to="J6_to_J5" type='car'/>
    <trip id="car_269" depart="1076.00" from="N_out_2_to_J2" to="J2_to_J1" type='car'/>
    <trip id="car_270" depart="1080.00" from="N_out_4_to_J4" to="J9_to_N_out_9" type='car'/>
    <trip id="car_271" depart="1084.00" from="J2_to_J3" to="J1_to_J2" type='car'/>
    <trip id="car_272" depart="1088.00" from="J5_to_J4" to="J7_to_J4" type='car'/>
    <trip id="car_273" depart="1092.00" from="N_out_9_to_J9" to="J4_to_J7" type='car'/>
    <trip id="car_274" depart="1096.00" from="N_out_1w_to_J1" to="J1_to_N_out_1" type='car'/>
    <trip id="car_275" depart="1100.00" from="N_out_1_to_J1" to="J6_to_J9" type='car'/>
    <trip id="car_276" depart="1104.00" from="J2_to_J3" to="J7_to_N_out_7s" type='car'/>
    <trip id="car_277" depart="1108.00" from="N_out_6_to_J6" to="J6_to_J5" type='car'/>
    <trip id="car_278" depart="1112.00" from="J2_to_J5" to="J9_to_N_out_9s" type='car'/>
    <trip id="car_279" depart="1116.00" from="N_out_3e_to_J3" to="J4_to_J1" type='car'/>
    <trip id="car_280" depart="1120.00" from="J6_to_J5" to="J4_to_J5" type='car'/>
    <trip id="car_281" depart="1124.00" from="J7_to_J8" to="J4_to_J1" type='car'/>
    <trip id="car_282" depart="1128.00" from="N_out_6_to_J6" to="J8_to_J7" type='car'/>
    <trip id="car_283" depart="1132.00" from="J2_to_J3" to="J9_to_N_out_9" type='car'/>
    <trip id="car_284" depart="1136.00" from="J9_to_J6" to="J8_to_J7" type='car'/>
    <trip id="car_285" depart="1140.00" from="N_out_1w_to_J1" to="J4_to_N_out_4" type='car'/>
    <trip id="car_286" depart="1144.00" from="N_out_2_to_J2" to="J9_to_N_out_9" type='car'/>
    <trip id="car_287" depart="1148.00" from="J4_to_J7" to="J8_to_J7" type='car'/>
    <trip id="car_288" depart="1152.00" from="J8_to_J5" to="J5_to_J4" type='car'/>
    <trip id="car_289" depart="1156.00" from="J6_to_J5" to="J7_to_N_out_7" type='car'/>
    <trip id="car_290" depart="1160.00" from="J4_to_J7" to="J8_to_J9" type='car'/>
    <trip id="car_291" depart="1164.00" from="N_out_4_to_J4" to="J1_to_N_out_1w" type='car'/>
    <trip id="car_292" depart="1168.00" from="N_out_7_to_J7" to="J3_to_J2" type='car'/>
    <trip id="car_293" depart="1172.00" from="J6_to_J9" to="J6_to_J5" type='car'/>
    <trip id="car_294" depart="1176.00" from="J5_to_J8" to="J1_to_J4" type='car'/>
    <trip id="car_295" depart="1180.00" from="N_out_6_to_J6" to="J2_to_J5" type='car'/>
    <trip id="car_296" depart="1184.00" from="J4_to_J1" to="J8_to_J5" type='car'/>
    <trip id="car_297" depart="1188.00" from="J5_to_J6" to="J8_to_N_out_8" type='car'/>
    <trip id="car_298" depart="1192.00" from="N_out_1w_to_J1" to="J3_to_J6" type='car'/>
    <trip id="car_299" depart="1196.00" from="J1_to_J2" to="J9_to_N_out_9" type='car'/>
    <trip id="car_300" depart="1200.00" from="J2_to_J3" to="J7_to_J8" type='car'/>
    <trip id="car_301" depart="1204.00" from="J7_to_J4" to="J7_to_N_out_7s" type='car'/>
    <trip id="car_302" depart="1208.00" from="N_out_1_to_J1" to="J6_to_N_out_6" type='car'/>
    <trip id="car_303" depart="1212.00" from="J7_to_J4" to="J8_to_J5" type='car'/>
    <trip id="car_304" depart="1216.00" from="J2_to_J3" to="J2_to_N_out_2" type='car'/>
    <trip id="car_305" depart="1220.00" from="N_out_1_to_J1" to="J3_to_N_out_3e" type='car'/>
    <trip id="car_306" depart="1224.00" from="J8_to_J7" to="J5_to_J4" type='car'/>
    <trip id="car_307" depart="1228.00" from="J8_to_J5" to="J4_to_N_out_4" type='car'/>
    <trip id="car_308" depart="1232.00" from="N_out_2_to_J2" to="J3_to_N_out_3e" type='car'/>
    <trip id="car_309" depart="1236.00" from="N_out_1w_to_J1" to="J3_to_J6" type='car'/>
    <trip id="car_310" depart="1240.00" from="J4_to_J7" to="J2_to_J1" type='car'/>
    <trip id="car_311" depart="1244.00" from="J3_to_J6" to="J2_to_J1" type='car'/>
    <trip id="car_312" depart="1248.00" from="J8_to_J5" to="J7_to_N_out_7s" type='car'/>
    <trip id="car_313" depart="1252.00" from="J3_to_J6" to="J2_to_N_out_2" type='car'/>
    <trip id="car_314" depart="1256.00" from="J7_to_J4" to="J7_to_N_out_7" type='car'/>
    <trip id="car_315" depart="1260.00" from="N_out_9s_to_J9" to="J5_to_J6" type='car'/>
    <trip id="car_316" depart="1264.00" from="J5_to_J2" to="J1_to_N_out_1w" type='car'/>
    <trip id="car_317" depart="1268.00" from="J3_to_J6" to="J3_to_J2" type='car'/>
    <trip id="car_318" depart="1272.00" from="J3_to_J6" to="J1_to_J2" type='car'/>
    <trip id="car_319" depart="1276.00" from="J8_to_J5" to="J3_to_J6" type='car'/>
    <trip id="car_320" depart="1280.00" from="N_out_9s_to_J9" to="J5_to_J8" type='car'/>
    <trip id="car_321" depart="1284.00" from="N_out_1w_to_J1" to="J2_to_J1" type='car'/>
    <trip id="car_322" depart="1288.00" from="N_out_7_to_J7" to="J5_to_J4" type='car'/>
    <trip id="car_323" depart="1292.00" from="N_out_7_to_J7" to="J6_to_J3" type='car'/>
    <trip id="car_324" depart="1296.00" from="J6_to_J9" to="J4_to_N_out_4" type='car'/>
    <trip id="car_325" depart="1300.00" from="J3_to_J6" to="J1_to_J4" type='car'/>
    <trip id="car_326" depart="1304.00" from="N_out_8_to_J8" to="J5_to_J4" type='car'/>
    <trip id="car_327" depart="1308.00" from="N_out_4_to_J4" to="J4_to_J7" type='car'/>
    <trip id="car_328" depart="1312.00" from="J2_to_J1" to="J6_to_J9" type='car'/>
    <trip id="car_329" depart="1316.00" from="J1_to_J4" to="J2_to_J3" type='car'/>
    <trip id="car_330" depart="1320.00" from="J8_to_J7" to="J3_to_N_out_3" type='car'/>
    <trip id="car_331" depart="1324.00" from="N_out_9s_to_J9" to="J2_to_J1" type='car'/>
    <trip id="car_332" depart="1328.00" from="N_out_3_to_J3" to="J6_to_J5" type='car'/>
    <trip id="car_333" depart="1332.00" from="N_out_3e_to_J3" to="J3_to_J2" type='car'/>
    <trip id="car_334" depart="1336.00" from="J7_to_J8" to="J5_to_J2" type='car'/>
    <trip id="car_335" depart="1340.00" from="J6_to_J5" to="J8_to_J9" type='car'/>
    <trip id="car_336" depart="1344.00" from="N_out_9s_to_J9" to="J3_to_N_out_3" type='car'/>
    <trip id="car_337" depart="1348.00" from="J9_to_J6" to="J6_to_J5" type='car'/>
    <trip id="car_338" depart="1352.00" from="N_out_2_to_J2" to="J9_to_N_out_9" type='car'/>
    <trip id="car_339" depart="1356.00" from="J4_to_J1" to="J2_to_N_out_2" type='car'/>
    <trip id="car_340" depart="1360.00" from="J9_to_J8" to="J2_to_J3" type='car'/>
    <trip id="car_341" depart="1364.00" from="J3_to_J6" to="J1_to_N_out_1" type='car'/>
    <trip id="car_342" depart="1368.00" from="J1_to_J2" to="J5_to_J2" type='car'/>
    <trip id="car_343" depart="1372.00" from="J8_to_J9" to="J3_to_N_out_3" type='car'/>