<?xml version="1.0" encoding="UTF-8"?>

<!-- generated on 2025-10-09 20:13:57.431800 by randomTrips.py UNKNOWN
<configuration>
    <net-file value="vn.net.xml"/>
    <output-trip-file value="vn.delivery.trips.xml"/>
    <prefix value="delivery_"/>
    <trip-attributes value="type='delivery'"/>
    <period value="20.0"/>
</configuration>
-->

<routes xmlns:xsi="http://www.w3.org/2001/XMLSchema-instance" xsi:noNamespaceSchemaLocation="http://sumo.dlr.de/xsd/routes_file.xsd">
    <trip id="delivery_0" depart="0.00" from="J9_to_J8" to="J1_to_J2" type='delivery'/>
    <trip id="delivery_1" depart="20.00" from="J4_to_J7" to="J3_to_J2" type='delivery'/>
    <trip id="delivery_2" depart="40.00" from="N_out_2_to_J2" to="J7_to_J4" type='delivery'/>
    <trip id="delivery_3" depart="60.00" from="N_out_7s_to_J7" to="J1_to_N_out_1w" type='delivery'/>
    <trip id="delivery_4" depart="80.00" from="J6_to_J5" to="J1_to_J4" type='delivery'/>
    <trip id="delivery_5" depart="100.00" from="J4_to_J1" to="J5_to_J6" type='delivery'/>
    <trip id="delivery_6" depart="120.00" from="J1_to_J2" to="J2_to_N_out_2" type='delivery'/>
    <trip id="delivery_7" depart="140.00" from="J9_to_J8" to="J5_to_J8" type='delivery'/>
    <trip id="delivery_8" depart="160.00" from="J4_to_J1" to="J6_to_J5" type='delivery'/>
    <trip id="delivery_9" depart="180.00" from="N_out_4_to_J4" to="J1_to_J2" type='delivery'/>
    <trip id="delivery_10" depart="200.00" from="N_out_4_to_J4" to="J7_to_J8" type='delivery'/>
    <trip id="delivery_11" depart="220.00" from="J5_to_J6" to="J2_to_J3" type='delivery'/>
    <trip id="delivery_12" depart="240.00" from="N_out_9_to_J9" to="J4_to_J1" type='delivery'/>
    <trip id="delivery_13" depart="260.00" from="J2_to_J3" to="J1_to_N_out_1w" type='delivery'/>
    <trip id="delivery_14" depart="280.00" from="N_out_6_to_J6" to="J6_to_J5" type='delivery'/>
    <trip id="delivery_15" depart="300.00" from="N_out_4_to_J4" to="J7_to_N_out_7" type='delivery'/>
    <trip id="delivery_16" depart="320.00" from="J8_to_J5" to="J9_to_N_out_9s" type='delivery'/>
    <trip id="delivery_17" depart="340.00" from="J5_to_J8" to="J5_to_J8" type='delivery'/>
    <trip id="delivery_18" depart="360.00" from="N_out_4_to_J4" to="J6_to_J9" type='delivery'/>
    <trip id="delivery_19" depart="380.00" from="N_out_7_to_J7" to="J6_to_J3" type='delivery'/>
    <trip id="delivery_20" depart="400.00" from="N_out_1w_to_J1" to="J1_to_J4" type='delivery'/>
    <trip id="delivery_21" depart="420.00" from="J4_to_J5" to="J3_to_N_out_3" type='delivery'/>
    <trip id="delivery_22" depart="440.00" from="J2_to_J1" to="J3_to_J2" type='delivery'/>
    <trip id="delivery_23" depart="460.00" from="J2_to_J3" to="J3_to_N_out_3" type='delivery'/>
    <trip id="delivery_24" depart="480.00" from="J9_to_J6" to="J4_to_J5" type='delivery'/>
    <trip id="delivery_25" depart="500.00" from="J5_to_J8" to="J2_to_N_out_2" type='delivery'/>
    <trip id="delivery_26" depart="520.00" from="J4_to_J7" to="J9_to_J8" type='delivery'/>
    <trip id="delivery_27" depart="540.00" from="J9_to_J8" to="J6_to_J5" type='delivery'/>
    <trip id="delivery_28" depart="560.00" from="J3_to_J6" to="J7_to_N_out_7" type='delivery'/>
    <trip id="delivery_29" depart="580.00" from="J3_to_J2" to="J4_to_J5" type='delivery'/>
    <trip id="delivery_30" depart="600.00" from="N_out_9s_to_J9" to="J6_to_N_out_6" type='delivery'/>
    <trip id="delivery_31" depart="620.00" from="J8_to_J7" to="J7_to_J4" type='delivery'/>
    <trip id="delivery_32" depart="640.00" from="N_out_6_to_J6" to="J7_to_N_out_7s" type='delivery'/>
    <trip id="delivery_33" depart="660.00" from="J4_to_J5" to="J1_to_J4" type='delivery'/>
    <trip id="delivery_34" depart="680.00" from="J5_to_J4" to="J3_to_J6" type='delivery'/>
    <trip id="delivery_35" depart="700.00" from="J4_to_J1" to="J9_to_J8" type='delivery'/>
    <trip id="delivery_36" depart="720.00" from="N_out_7_to_J7" to="J3_to_N_out_3e" type='delivery'/>
    <trip id="delivery_37" depart="740.00" from="J9_to_J8" to="J4_to_J7" type='delivery'/>
    <trip id="delivery_38" depart="760.00" from="N_out_7s_to_J7" to="J5_to_J2" type='delivery'/>
    <trip id="delivery_39" depart="780.00" from="J4_to_J7" to="J3_to_J2" type='delivery'/>
    <trip id="delivery_40" depart="800.00" from="J8_to_J7" to="J3_to_J6" type='delivery'/>
    <trip id="delivery_41" depart="820.00" from="J8_to_J9" to="J9_to_J6" type='delivery'/>
    <trip id="delivery_42" depart="840.00" from="J6_to_J3" to="J2_to_N_out_2" type='delivery'/>
    <trip id="delivery_43" depart="860.00" from="N_out_9s_to_J9" to="J5_to_J6" type='delivery'/>
    <trip id="delivery_44" depart="880.00" from="J2_to_J3" to="J1_to_J4" type='delivery'/>
    <trip id="delivery_45" depart="900.00" from="J2_to_J3" to="J6_to_J9" type='delivery'/>
    <trip id="delivery_46" depart="920.00" from="N_out_3e_to_J3" to="J4_to_N_out_4" type='delivery'/>
    <trip id="delivery_47" depart="940.00" from="J2_to_J1" to="J4_to_J5" type='delivery'/>
    <trip id="delivery_48" depart="960.00" from="N_out_9s_to_J9" to="J5_to_J8" type='delivery'/>
    <trip id="delivery_49" depart="980.00" from="N_out_9_to_J9" to="J8_to_J9" type='delivery'/>
    <trip id="delivery_50" depart="1000.00" from="J1_to_J2" to="J7_to_J8" type='delivery'/>
    <trip id="delivery_51" depart="1020.00" from="N_out_1_to_J1" to="J5_to_J8" type='delivery'/>
    <trip id="delivery_52" depart="1040.00" from="J4_to_J7" to="J6_to_N_out_6" type='delivery'/>
    <trip id="delivery_53" depart="1060.00" from="J2_to_J5" to="J4_to_N_out_4" type='delivery'/>
    <trip id="delivery_54" depart="1080.00" from="J6_to_J9" to="J9_to_N_out_9" type='delivery'/>
    <trip id="delivery_55" depart="1100.00" from="N_out_7_to_J7" to="J3_to_J6" type='delivery'/>
    <trip id="delivery_56" depart="1120.00" from="J7_to_J8" to="J2_to_J5" type='delivery'/>
    <trip id="delivery_57" depart="1140.00" from="N_out_7s_to_J7" to="J8_to_N_out_8" type='delivery'/>
    <trip id="delivery_58" depart="1160.00" from="J5_to_J2" to="J6_to_N_out_6" type='delivery'/>
    <trip id="delivery_59" depart="1180.00" from="J8_to_J9" to="J2_to_J3" type='delivery'/>
    <trip id="delivery_60" depart="1200.00" from="N_out_3_to_J3" to="J5_to_J8" type='delivery'/>
    <trip id="delivery_61" depart="1220.00" from="N_out_3e_to_J3" to="J5_to_J8" type='delivery'/>
    <trip id="delivery_62" depart="1240.00" from="J1_to_J2" to="J3_to_N_out_3e" type='delivery'/>
    <trip id="delivery_63" depart="1260.00" from="J1_to_J2" to="J9_to_J8" type='delivery'/>
    <trip id="delivery_64" depart="1280.00" from="N_out_7_to_J7" to="J8_to_J7" type='delivery'/>
    <trip id="delivery_65" depart="1300.00" from="J5_to_J4" to="J1_to_N_out_1" type='delivery'/>
    <trip id="delivery_66" depart="1320.00" from="N_out_7_to_J7" to="J9_to_N_out_9" type='delivery'/>
    <trip id="delivery_67" depart="1340.00" from="J2_to_J3" to="J5_to_J4" type='delivery'/>
    <trip id="delivery_68" depart="1360.00" from="J2_to_J1" to="J7_to_N_out_7s" type='delivery'/>
    <trip id="delivery_69" depart="1380.00" from="N_out_3_to_J3" to="J2_to_J1" type='delivery'/>
    <trip id="delivery_70" depart="1400.00" from="J7_to_J4" to="J5_to_J8" type='delivery'/>
    <trip id="delivery_71" depart="1420.00" from="J4_to_J7" to="J8_to_N_out_8" type='delivery'/>
    <trip id="delivery_72" depart="1440.00" from="J6_to_J5" to="J2_to_N_out_2" type='delivery'/>
    <trip id="delivery_73" depart="1460.00" from="J8_to_J5" to="J7_to_N_out_7" type='delivery'/>
    <trip id="delivery_74" depart="1480.00" from="J4_to_J1" to="J3_to_N_out_3e" type='delivery'/>
    <trip id="delivery_75" depart="1500.00" from="N_out_9s_to_J9" to="J6_to_N_out_6" type='delivery'/>
    <trip id="delivery_76" depart="1520.00" from="J6_to_J5" to="J5_to_J6" type='delivery'/>
    <trip id="delivery_77" depart="1540.00" from="J2_to_J5" to="J3_to_J2" type='delivery'/>
    <trip id="delivery_78" depart="1560.00" from="J5_to_J6" to="J6_to_J5" type='delivery'/>
    <trip id="delivery_79" depart="1580.00" from="J4_to_J5" to="J2_to_N_out_2" type='delivery'/>
    <trip id="delivery_80" depart="1600.00" from="J2_to_J1" to="J6_to_J9" type='delivery'/>
    <trip id="delivery_81" depart="1620.00" from="J4_to_J5" to="J9_to_J6" type='delivery'/>
    <trip id="delivery_82" depart="1640.00" from="N_out_6_to_J6" to="J1_to_N_out_1" type='delivery'/>
    <trip id="delivery_83" depart="1660.00" from="J4_to_J5" to="J7_to_J4" type='delivery'/>
    <trip id="delivery_84" depart="1680.00" from="J4_to_J1" to="J2_to_J1" type='delivery'/>
    <trip id="delivery_85" depart="1700.00" from="N_out_8_to_J8" to="J6_to_J3" type='delivery'/>
    <trip id="delivery_86" depart="1720.00" from="J7_to_J4" to="J8_to_J5" type='delivery'/>
    <trip id="delivery_87" depart="1740.00" from="N_out_4_to_J4" to="J2_to_J5" type='delivery'/>
    <trip id="delivery_88" depart="1760.00" from="J2_to_J3" to="J4_to_N_out_4" type='delivery'/>
    <trip id="delivery_89" depart="1780.00" from="J6_to_J5" to="J5_to_J2" type='delivery'/>
    <trip id="delivery_90" depart="1800.00" from="N_out_2_to_J2" to="J7_to_J4" type='delivery'/>
    <trip id="delivery_91" depart="1820.00" from="N_out_9s_to_J9" to="J1_to_N_out_1w" type='delivery'/>
    <trip id="delivery_92" depart="1840.00" from="J6_to_J3" to="J4_to_J1" type='delivery'/>
    <trip id="delivery_93" depart="1860.00" from="N_out_7_to_J7" to="J3_to_J2" type='delivery'/>
    <trip id="delivery_94" depart="1880.00" from="J3_to_J6" to="J5_to_J2" type='delivery'/>
    <trip id="delivery_95" depart="1900.00" from="J6_to_J5" to="J3_to_N_out_3" type='delivery'/>
    <trip id="delivery_96" depart="1920.00" from="J4_to_J5" to="J9_to_J8" type='delivery'/>
    <trip id="delivery_97" depart="1940.00" from="J6_to_J5" to="J8_to_N_out_8" type='delivery'/>
    <trip id="delivery_98" depart="1960.00" from="J8_to_J5" to="J1_to_J4" type='delivery'/>
    <trip id="delivery_99" depart="1980.00" from="N_out_9s_to_J9" to="J8_to_J9" type='delivery'/>
    <trip id="delivery_100" depart="2000.00" from="N_out_9_to_J9" to="J9_to_J8" type='delivery'/>
    <trip id="delivery_101" depart="2020.00" from="N_out_6_to_J6" to="J2_to_J3" type='delivery'/>
    <trip id="delivery_102" depart="2040.00" from="J7_to_J4" to="J2_to_N_out_2" type='delivery'/>
    <trip id="delivery_103" depart="2060.00" from="J6_to_J3" to="J1_to_N_out_1" type='delivery'/>
    <trip id="delivery_104" depart="2080.00" from="J5_to_J8" to="J9_to_N_out_9s" type='delivery'/>
    <trip id="delivery_105" depart="2100.00" from="J4_to_J7" to="J8_to_J5" type='delivery'/>
    <trip id="delivery_106" depart="2120.00" from="J6_to_J9" to="J4_to_N_out_4" type='delivery'/>
    <trip id="delivery_107" depart="2140.00" from="N_out_9_to_J9" to="J9_to_N_out_9s" type='delivery'/>
    <trip id="delivery_108" depart="2160.00" from="J8_to_J7" to="J7_to_J8" type='delivery'/>
    <trip id="delivery_109" depart="2180.00" from="J3_to_J2" to="J3_to_N_out_3" type='delivery'/>
    <trip id="delivery_110" depart="2200.00" from="N_out_9_to_J9" to="J6_to_J3" type='delivery'/>
    <trip id="delivery_111" depart="2220.00" from="J8_to_J5" to="J7_to_N_out_7" type='delivery'/>
    <trip id="delivery_112" depart="2240.00" from="J2_to_J1" to="J6_to_J5" type='delivery'/>
    <trip id="delivery_113" depart="2260.00" from="J7_to_J8" to="J8_to_J9" type='delivery'/>
    <trip id="delivery_114" depart="2280.00" from="J3_to_J2" to="J9_to_N_out_9" type='delivery'/>
    <trip id="delivery_115" depart="2300.00" from="J2_to_J1" to="J2_to_J5" type='delivery'/>
    <trip id="delivery_116" depart="2320.00" from="J8_to_J9" to="J7_to_J4" type='delivery'/>
    <trip id="delivery_117" depart="2340.00" from="J4_to_J5" to="J2_to_J1" type='delivery'/>
    <trip id="delivery_118" depart="2360.00" from="N_out_7s_to_J7" to="J3_to_J2" type='delivery'/>
    <trip id="delivery_119" depart="2380.00" from="J8_to_J9" to="J6_to_J9" type='delivery'/>
    <trip id="delivery_120" depart="2400.00" from="J6_to_J5" to="J6_to_J5" type='delivery'/>
    <trip id="delivery_121" depart="2420.00" from="J7_to_J8" to="J9_to_J8" type='delivery'/>
    <trip id="delivery_122" depart="2440.00" from="J4_to_J1" to="J7_to_J8" type='delivery'/>
    <trip id="delivery_123" depart="2460.00" from="J4_to_J5" to="J4_to_J7" type='delivery'/>
    <trip id="delivery_124" depart="2480.00" from="N_out_1_to_J1" to="J3_to_N_out_3" type='delivery'/>
    <trip id="delivery_125" depart="2500.00" from="J5_to_J4" to="J7_to_N_out_7s" type='delivery'/>
    <trip id="delivery_126" depart="2520.00" from="J2_to_J1" to="J5_to_J2" type='delivery'/>
    <trip id="delivery_127" depart="2540.00" from="N_out_9s_to_J9" to="J9_to_N_out_9s" type='delivery'/>
    <trip id="delivery_128" depart="2560.00" from="J2_to_J1" to="J2_to_N_out_2" type='delivery'/>
    <trip id="delivery_129" depart="2580.00" from="J4_to_J7" to="J9_to_J8" type='delivery'/>
    <trip id="delivery_130" depart="2600.00" from="N_out_7_to_J7" to="J8_to_N_out_8" type='delivery'/>
    <trip id="delivery_131" depart="2620.00" from="J5_to_J8" to="J2_to_J3" type='delivery'/>
    <trip id="delivery_132" depart="2640.00" from="N_out_6_to_J6" to="J7_to_J8" type='delivery'/>
    <trip id="delivery_133" depart="2660.00" from="J9_to_J6" to="J9_to_N_out_9s" type='delivery'/>
    <trip id="delivery_134" depart="2680.00" from="J9_to_J8" to="J1_to_J2" type='delivery'/>
    <trip id="delivery_135" depart="2700.00" from="N_out_4_to_J4" to="J3_to_N_out_3" type='delivery'/>
    <trip id="delivery_136" depart="2720.00" from="J9_to_J8" to="J9_to_J8" type='delivery'/>
    <trip id="delivery_137" depart="2740.00" from="J2_to_J5" to="J2_to_J1" type='delivery'/>
    <trip id="delivery_138" depart="2760.00" from="J2_to_J3" to="J5_to_J8" type='delivery'/>
    <trip id="delivery_139" depart="2780.00" from="J4_to_J7" to="J6_to_J5" type='delivery'/>
    <trip id="delivery_140" depart="2800.00" from="N_out_1w_to_J1" to="J2_to_N_out_2" type='delivery'/>
    <trip id="delivery_141" depart="2820.00" from="J9_to_J6" to="J3_to_J6" type='delivery'/>
    <trip id="delivery_142" depart="2840.00" from="J7_to_J4" to="J9_to_J6" type='delivery'/>
    <trip id="delivery_143" depart="2860.00" from="N_out_6_to_J6" to="J1_to_N_out_1w" type='delivery'/>
    <trip id="delivery_144" depart="2880.00" from="J6_to_J5" to="J3_to_J6" type='delivery'/>
    <trip id="delivery_145" depart="2900.00" from="J1_to_J2" to="J7_to_N_out_7s" type='delivery'/>
    <trip id="delivery_146" depart="2920.00" from="J9_to_J6" to="J3_to_J6" type='delivery'/>
    <trip id="delivery_147" depart="2940.00" from="N_out_2_to_J2" to="J5_to_J8" type='delivery'/>
    <trip id="delivery_148" depart="2960.00" from="J6_to_J5" to="J1_to_J2" type='delivery'/>
    <trip id="delivery_149" depart="2980.00" from="J2_to_J1" to="J8_to_N_out_8" type='delivery'/>
    <trip id="delivery_150" depart="3000.00" from="N_out_7s_to_J7" to="J5_to_J8" type='delivery'/>
    <trip id="delivery_151" depart="3020.00" from="N_out_6_to_J6" to="J6_to_J3" type='delivery'/>
    <trip id="delivery_152" depart="3040.00" from="J3_to_J2" to="J2_to_J1" type='delivery'/>
    <trip id="delivery_153" depart="3060.00" from="J5_to_J4" to="J9_to_J6" type='delivery'/>
    <trip id="delivery_154" depart="3080.00" from="N_out_3e_to_J3" to="J8_to_J9" type='delivery'/>
    <trip id="delivery_155" depart="3100.00" from="N_out_7s_to_J7" to="J2_to_N_out_2" type='delivery'/>
    <trip id="delivery_156" depart="3120.00" from="J4_to_J5" to="J1_to_N_out_1w" type='delivery'/>
    <trip id="delivery_157" depart="3140.00" from="N_out_3e_to_J3" to="J8_to_N_out_8" type='delivery'/>
    <trip id="delivery_158" depart="3160.00" from="J6_to_J3" to="J6_to_J9" type='delivery'/>
    <trip id="delivery_159" depart="3180.00" from="J3_to_J2" to="J9_to_J8" type='delivery'/>
    <trip id="delivery_160" depart="3200.00" from="N_out_7_to_J7" to="J9_to_N_out_9s" type='delivery'/>
    <trip id="delivery_161" depart="3220.00" from="N_out_4_to_J4" to="J8_to_N_out_8" type='delivery'/>
    <trip id="delivery_162" depart="3240.00" from="J1_to_J2" to="J7_to_N_out_7" type='delivery'/>
    <trip id="delivery_163" depart="3260.00" from="J5_to_J4" to="J9_to_J8" type='delivery'/>
    <trip id="delivery_164" depart="3280.00" from="N_out_3e_to_J3" to="J8_to_N_out_8" type='delivery'/>
    <trip id="delivery_165" depart="3300.00" from="N_out_4_to_J4" to="J3_to_J6" type='delivery'/>
    <trip id="delivery_166" depart="3320.00" from="N_out_3e_to_J3" to="J1_to_N_out_1w" type='delivery'/>
    <trip id="delivery_167" depart="3340.00" from="N_out_7_to_J7" to="J8_to_J9" type='delivery'/>
    <trip id="delivery_168" depart="3360.00" from="J4_to_J5" to="J8_to_J7" type='delivery'/>
    <trip id="delivery_169" depart="3380.00" from="J6_to_J9" to="J3_to_N_out_3" type='delivery'/>
    <trip id="delivery_170" depart="3400.00" from="N_out_3e_to_J3" to="J3_to_J2" type='delivery'/>
    <trip id="delivery_171" depart="3420.00" from="J1_to_J2" to="J2_to_J5" type='delivery'/>
    <trip id="delivery_172" depart="3440.00" from="J5_to_J4" to="J8_to_N_out_8" type='delivery'/>
    <trip id="delivery_173" depart="3460.00" from="N_out_9_to_J9" to="J3_to_N_out_3" type='delivery'/>
    <trip id="delivery_174" depart="3480.00" from="J9_to_J8" to="J4_to_J7" type='delivery'/>
    <trip id="delivery_175" depart="3500.00" from="N_out_9s_to_J9" to="J5_to_J8" type='delivery'/>
    <trip id="delivery_176" depart="3520.00" from="N_out_8_to_J8" to="J2_to_J1" type='delivery'/>
    <trip id="delivery_177" depart="3540.00" from="N_out_9_to_J9" to="J2_to_J5" type='delivery'/>
    <trip id="delivery_178" depart="3560.00" from="N_out_9_to_J9" to="J3_to_J6" type='delivery'/>
    <trip id="delivery_179" depart="3580.00" from="J2_to_J3" to="J4_to_N_out_4" type='delivery'/>
</routes>
