<?xml version="1.0" encoding="UTF-8"?>

<!-- generated on 2025-10-11 21:27:08.855524 by randomTrips.py v1_24_0+0000-b72eb3fabc8
<configuration>
    <net-file value="vn.net.xml"/>
    <output-trip-file value="vn.motorcycle.trips.xml"/>
    <prefix value="motorcycle_"/>
    <trip-attributes value="type='motorcycle'"/>
    <period value="0.5"/>
</configuration>
-->

<routes xmlns:xsi="http://www.w3.org/2001/XMLSchema-instance" xsi:noNamespaceSchemaLocation="http://sumo.dlr.de/xsd/routes_file.xsd">
    <trip id="motorcycle_0" depart="0.00" from="J9_to_J8" to="J1_to_J2" type='motorcycle'/>
    <trip id="motorcycle_1" depart="0.50" from="J4_to_J7" to="J3_to_J2" type='motorcycle'/>
    <trip id="motorcycle_2" depart="1.00" from="N_out_2_to_J2" to="J7_to_J4" type='motorcycle'/>
    <trip id="motorcycle_3" depart="1.50" from="N_out_7s_to_J7" to="J1_to_N_out_1w" type='motorcycle'/>
    <trip id="motorcycle_4" depart="2.00" from="J6_to_J5" to="J1_to_J4" type='motorcycle'/>
    <trip id="motorcycle_5" depart="2.50" from="J4_to_J1" to="J5_to_J6" type='motorcycle'/>
    <trip id="motorcycle_6" depart="3.00" from="J1_to_J2" to="J2_to_N_out_2" type='motorcycle'/>
    <trip id="motorcycle_7" depart="3.50" from="J9_to_J8" to="J5_to_J8" type='motorcycle'/>
    <trip id="motorcycle_8" depart="4.00" from="J4_to_J1" to="J6_to_J5" type='motorcycle'/>
    <trip id="motorcycle_9" depart="4.50" from="N_out_4_to_J4" to="J1_to_J2" type='motorcycle'/>
    <trip id="motorcycle_10" depart="5.00" from="N_out_4_to_J4" to="J7_to_J8" type='motorcycle'/>
    <trip id="motorcycle_11" depart="5.50" from="J5_to_J6" to="J2_to_J3" type='motorcycle'/>
    <trip id="motorcycle_12" depart="6.00" from="N_out_9_to_J9" to="J4_to_J1" type='motorcycle'/>
    <trip id="motorcycle_13" depart="6.50" from="J2_to_J3" to="J1_to_N_out_1w" type='motorcycle'/>
    <trip id="motorcycle_14" depart="7.00" from="N_out_6_to_J6" to="J6_to_J5" type='motorcycle'/>
    <trip id="motorcycle_15" depart="7.50" from="N_out_4_to_J4" to="J7_to_N_out_7" type='motorcycle'/>
    <trip id="motorcycle_16" depart="8.00" from="J8_to_J5" to="J9_to_N_out_9s" type='motorcycle'/>
    <trip id="motorcycle_17" depart="8.50" from="J5_to_J8" to="J5_to_J8" type='motorcycle'/>
    <trip id="motorcycle_18" depart="9.00" from="N_out_4_to_J4" to="J6_to_J9" type='motorcycle'/>
    <trip id="motorcycle_19" depart="9.50" from="N_out_7_to_J7" to="J6_to_J3" type='motorcycle'/>
    <trip id="motorcycle_20" depart="10.00" from="N_out_1w_to_J1" to="J1_to_J4" type='motorcycle'/>
    <trip id="motorcycle_21" depart="10.50" from="J4_to_J5" to="J3_to_N_out_3" type='motorcycle'/>
    <trip id="motorcycle_22" depart="11.00" from="J2_to_J1" to="J3_to_J2" type='motorcycle'/>
    <trip id="motorcycle_23" depart="11.50" from="J2_to_J3" to="J3_to_N_out_3" type='motorcycle'/>
    <trip id="motorcycle_24" depart="12.00" from="J9_to_J6" to="J4_to_J5" type='motorcycle'/>
    <trip id="motorcycle_25" depart="12.50" from="J5_to_J8" to="J2_to_N_out_2" type='motorcycle'/>
    <trip id="motorcycle_26" depart="13.00" from="J4_to_J7" to="J9_to_J8" type='motorcycle'/>
    <trip id="motorcycle_27" depart="13.50" from="J9_to_J8" to="J6_to_J5" type='motorcycle'/>
    <trip id="motorcycle_28" depart="14.00" from="J3_to_J6" to="J7_to_N_out_7" type='motorcycle'/>
    <trip id="motorcycle_29" depart="14.50" from="J3_to_J2" to="J4_to_J5" type='motorcycle'/>
    <trip id="motorcycle_30" depart="15.00" from="N_out_9s_to_J9" to="J6_to_N_out_6" type='motorcycle'/>
    <trip id="motorcycle_31" depart="15.50" from="J8_to_J7" to="J7_to_J4" type='motorcycle'/>
    <trip id="motorcycle_32" depart="16.00" from="N_out_6_to_J6" to="J7_to_N_out_7s" type='motorcycle'/>
    <trip id="motorcycle_33" depart="16.50" from="J4_to_J5" to="J1_to_J4" type='motorcycle'/>
    <trip id="motorcycle_34" depart="17.00" from="J5_to_J4" to="J3_to_J6" type='motorcycle'/>
    <trip id="motorcycle_35" depart="17.50" from="J4_to_J1" to="J9_to_J8" type='motorcycle'/>
    <trip id="motorcycle_36" depart="18.00" from="N_out_7_to_J7" to="J3_to_N_out_3e" type='motorcycle'/>
    <trip id="motorcycle_37" depart="18.50" from="J9_to_J8" to="J4_to_J7" type='motorcycle'/>
    <trip id="motorcycle_38" depart="19.00" from="N_out_7s_to_J7" to="J5_to_J2" type='motorcycle'/>
    <trip id="motorcycle_39" depart="19.50" from="J4_to_J7" to="J3_to_J2" type='motorcycle'/>
    <trip id="motorcycle_40" depart="20.00" from="J8_to_J7" to="J3_to_J6" type='motorcycle'/>
    <trip id="motorcycle_41" depart="20.50" from="J8_to_J9" to="J9_to_J6" type='motorcycle'/>
    <trip id="motorcycle_42" depart="21.00" from="J6_to_J3" to="J2_to_N_out_2" type='motorcycle'/>
    <trip id="motorcycle_43" depart="21.50" from="N_out_9s_to_J9" to="J5_to_J6" type='motorcycle'/>
    <trip id="motorcycle_44" depart="22.00" from="J2_to_J3" to="J1_to_J4" type='motorcycle'/>
    <trip id="motorcycle_45" depart="22.50" from="J2_to_J3" to="J6_to_J9" type='motorcycle'/>
    <trip id="motorcycle_46" depart="23.00" from="N_out_3e_to_J3" to="J4_to_N_out_4" type='motorcycle'/>
    <trip id="motorcycle_47" depart="23.50" from="J2_to_J1" to="J4_to_J5" type='motorcycle'/>
    <trip id="motorcycle_48" depart="24.00" from="N_out_9s_to_J9" to="J5_to_J8" type='motorcycle'/>
    <trip id="motorcycle_49" depart="24.50" from="N_out_9_to_J9" to="J8_to_J9" type='motorcycle'/>
    <trip id="motorcycle_50" depart="25.00" from="J1_to_J2" to="J7_to_J8" type='motorcycle'/>
    <trip id="motorcycle_51" depart="25.50" from="N_out_1_to_J1" to="J5_to_J8" type='motorcycle'/>
    <trip id="motorcycle_52" depart="26.00" from="J4_to_J7" to="J6_to_N_out_6" type='motorcycle'/>
    <trip id="motorcycle_53" depart="26.50" from="J2_to_J5" to="J4_to_N_out_4" type='motorcycle'/>
    <trip id="motorcycle_54" depart="27.00" from="J6_to_J9" to="J9_to_N_out_9" type='motorcycle'/>
    <trip id="motorcycle_55" depart="27.50" from="N_out_7_to_J7" to="J3_to_J6" type='motorcycle'/>
    <trip id="motorcycle_56" depart="28.00" from="J7_to_J8" to="J2_to_J5" type='motorcycle'/>
    <trip id="motorcycle_57" depart="28.50" from="N_out_7s_to_J7" to="J8_to_N_out_8" type='motorcycle'/>
    <trip id="motorcycle_58" depart="29.00" from="J5_to_J2" to="J6_to_N_out_6" type='motorcycle'/>
    <trip id="motorcycle_59" depart="29.50" from="J8_to_J9" to="J2_to_J3" type='motorcycle'/>
    <trip id="motorcycle_60" depart="30.00" from="N_out_3_to_J3" to="J5_to_J8" type='motorcycle'/>
    <trip id="motorcycle_61" depart="30.50" from="N_out_3e_to_J3" to="J5_to_J8" type='motorcycle'/>
    <trip id="motorcycle_62" depart="31.00" from="J1_to_J2" to="J3_to_N_out_3e" type='motorcycle'/>
    <trip id="motorcycle_63" depart="31.50" from="J1_to_J2" to="J9_to_J8" type='motorcycle'/>
    <trip id="motorcycle_64" depart="32.00" from="N_out_7_to_J7" to="J8_to_J7" type='motorcycle'/>
    <trip id="motorcycle_65" depart="32.50" from="J5_to_J4" to="J1_to_N_out_1" type='motorcycle'/>
    <trip id="motorcycle_66" depart="33.00" from="N_out_7_to_J7" to="J9_to_N_out_9" type='motorcycle'/>
    <trip id="motorcycle_67" depart="33.50" from="J2_to_J3" to="J5_to_J4" type='motorcycle'/>
    <trip id="motorcycle_68" depart="34.00" from="J2_to_J1" to="J7_to_N_out_7s" type='motorcycle'/>
    <trip id="motorcycle_69" depart="34.50" from="N_out_3_to_J3" to="J2_to_J1" type='motorcycle'/>
    <trip id="motorcycle_70" depart="35.00" from="J7_to_J4" to="J5_to_J8" type='motorcycle'/>
    <trip id="motorcycle_71" depart="35.50" from="J4_to_J7" to="J8_to_N_out_8" type='motorcycle'/>
    <trip id="motorcycle_72" depart="36.00" from="J6_to_J5" to="J2_to_N_out_2" type='motorcycle'/>
    <trip id="motorcycle_73" depart="36.50" from="J8_to_J5" to="J7_to_N_out_7" type='motorcycle'/>
    <trip id="motorcycle_74" depart="37.00" from="J4_to_J1" to="J3_to_N_out_3e" type='motorcycle'/>
    <trip id="motorcycle_75" depart="37.50" from="N_out_9s_to_J9" to="J6_to_N_out_6" type='motorcycle'/>
    <trip id="motorcycle_76" depart="38.00" from="J6_to_J5" to="J5_to_J6" type='motorcycle'/>
    <trip id="motorcycle_77" depart="38.50" from="J2_to_J5" to="J3_to_J2" type='motorcycle'/>
    <trip id="motorcycle_78" depart="39.00" from="J5_to_J6" to="J6_to_J5" type='motorcycle'/>
    <trip id="motorcycle_79" depart="39.50" from="J4_to_J5" to="J2_to_N_out_2" type='motorcycle'/>
    <trip id="motorcycle_80" depart="40.00" from="J2_to_J1" to="J6_to_J9" type='motorcycle'/>
    <trip id="motorcycle_81" depart="40.50" from="J4_to_J5" to="J9_to_J6" type='motorcycle'/>
    <trip id="motorcycle_82" depart="41.00" from="N_out_6_to_J6" to="J1_to_N_out_1" type='motorcycle'/>
    <trip id="motorcycle_83" depart="41.50" from="J4_to_J5" to="J7_to_J4" type='motorcycle'/>
    <trip id="motorcycle_84" depart="42.00" from="J4_to_J1" to="J2_to_J1" type='motorcycle'/>
    <trip id="motorcycle_85" depart="42.50" from="N_out_8_to_J8" to="J6_to_J3" type='motorcycle'/>
    <trip id="motorcycle_86" depart="43.00" from="J7_to_J4" to="J8_to_J5" type='motorcycle'/>
    <trip id="motorcycle_87" depart="43.50" from="N_out_4_to_J4" to="J2_to_J5" type='motorcycle'/>
    <trip id="motorcycle_88" depart="44.00" from="J2_to_J3" to="J4_to_N_out_4" type='motorcycle'/>
    <trip id="motorcycle_89" depart="44.50" from="J6_to_J5" to="J5_to_J2" type='motorcycle'/>
    <trip id="motorcycle_90" depart="45.00" from="N_out_2_to_J2" to="J7_to_J4" type='motorcycle'/>
    <trip id="motorcycle_91" depart="45.50" from="N_out_9s_to_J9" to="J1_to_N_out_1w" type='motorcycle'/>
    <trip id="motorcycle_92" depart="46.00" from="J6_to_J3" to="J4_to_J1" type='motorcycle'/>
    <trip id="motorcycle_93" depart="46.50" from="N_out_7_to_J7" to="J3_to_J2" type='motorcycle'/>
    <trip id="motorcycle_94" depart="47.00" from="J3_to_J6" to="J5_to_J2" type='motorcycle'/>
    <trip id="motorcycle_95" depart="47.50" from="J6_to_J5" to="J3_to_N_out_3" type='motorcycle'/>
    <trip id="motorcycle_96" depart="48.00" from="J4_to_J5" to="J9_to_J8" type='motorcycle'/>
    <trip id="motorcycle_97" depart="48.50" from="J6_to_J5" to="J8_to_N_out_8" type='motorcycle'/>
    <trip id="motorcycle_98" depart="49.00" from="J8_to_J5" to="J1_to_J4" type='motorcycle'/>
    <trip id="motorcycle_99" depart="49.50" from="N_out_9s_to_J9" to="J8_to_J9" type='motorcycle'/>
    <trip id="motorcycle_100" depart="50.00" from="N_out_9_to_J9" to="J9_to_J8" type='motorcycle'/>
    <trip id="motorcycle_101" depart="50.50" from="N_out_6_to_J6" to="J2_to_J3" type='motorcycle'/>
    <trip id="motorcycle_102" depart="51.00" from="J7_to_J4" to="J2_to_N_out_2" type='motorcycle'/>
    <trip id="motorcycle_103" depart="51.50" from="J6_to_J3" to="J1_to_N_out_1" type='motorcycle'/>
    <trip id="motorcycle_104" depart="52.00" from="J5_to_J8" to="J9_to_N_out_9s" type='motorcycle'/>
    <trip id="motorcycle_105" depart="52.50" from="J4_to_J7" to="J8_to_J5" type='motorcycle'/>
    <trip id="motorcycle_106" depart="53.00" from="J6_to_J9" to="J4_to_N_out_4" type='motorcycle'/>
    <trip id="motorcycle_107" depart="53.50" from="N_out_9_to_J9" to="J9_to_N_out_9s" type='motorcycle'/>
    <trip id="motorcycle_108" depart="54.00" from="J8_to_J7" to="J7_to_J8" type='motorcycle'/>
    <trip id="motorcycle_109" depart="54.50" from="J3_to_J2" to="J3_to_N_out_3" type='motorcycle'/>
    <trip id="motorcycle_110" depart="55.00" from="N_out_9_to_J9" to="J6_to_J3" type='motorcycle'/>
    <trip id="motorcycle_111" depart="55.50" from="J8_to_J5" to="J7_to_N_out_7" type='motorcycle'/>
    <trip id="motorcycle_112" depart="56.00" from="J2_to_J1" to="J6_to_J5" type='motorcycle'/>
    <trip id="motorcycle_113" depart="56.50" from="J7_to_J8" to="J8_to_J9" type='motorcycle'/>
    <trip id="motorcycle_114" depart="57.00" from="J3_to_J2" to="J9_to_N_out_9" type='motorcycle'/>
    <trip id="motorcycle_115" depart="57.50" from="J2_to_J1" to="J2_to_J5" type='motorcycle'/>
    <trip id="motorcycle_116" depart="58.00" from="J8_to_J9" to="J7_to_J4" type='motorcycle'/>
    <trip id="motorcycle_117" depart="58.50" from="J4_to_J5" to="J2_to_J1" type='motorcycle'/>
    <trip id="motorcycle_118" depart="59.00" from="N_out_7s_to_J7" to="J3_to_J2" type='motorcycle'/>
    <trip id="motorcycle_119" depart="59.50" from="J8_to_J9" to="J6_to_J9" type='motorcycle'/>
    <trip id="motorcycle_120" depart="60.00" from="J6_to_J5" to="J6_to_J5" type='motorcycle'/>
    <trip id="motorcycle_121" depart="60.50" from="J7_to_J8" to="J9_to_J8" type='motorcycle'/>
    <trip id="motorcycle_122" depart="61.00" from="J4_to_J1" to="J7_to_J8" type='motorcycle'/>
    <trip id="motorcycle_123" depart="61.50" from="J4_to_J5" to="J4_to_J7" type='motorcycle'/>
    <trip id="motorcycle_124" depart="62.00" from="N_out_1_to_J1" to="J3_to_N_out_3" type='motorcycle'/>
    <trip id="motorcycle_125" depart="62.50" from="J5_to_J4" to="J7_to_N_out_7s" type='motorcycle'/>
    <trip id="motorcycle_126" depart="63.00" from="J2_to_J1" to="J5_to_J2" type='motorcycle'/>
    <trip id="motorcycle_127" depart="63.50" from="N_out_9s_to_J9" to="J9_to_N_out_9s" type='motorcycle'/>
    <trip id="motorcycle_128" depart="64.00" from="J2_to_J1" to="J2_to_N_out_2" type='motorcycle'/>
    <trip id="motorcycle_129" depart="64.50" from="J4_to_J7" to="J9_to_J8" type='motorcycle'/>
    <trip id="motorcycle_130" depart="65.00" from="N_out_7_to_J7" to="J8_to_N_out_8" type='motorcycle'/>
    <trip id="motorcycle_131" depart="65.50" from="J5_to_J8" to="J2_to_J3" type='motorcycle'/>
    <trip id="motorcycle_132" depart="66.00" from="N_out_6_to_J6" to="J7_to_J8" type='motorcycle'/>
    <trip id="motorcycle_133" depart="66.50" from="J9_to_J6" to="J9_to_N_out_9s" type='motorcycle'/>
    <trip id="motorcycle_134" depart="67.00" from="J9_to_J8" to="J1_to_J2" type='motorcycle'/>
    <trip id="motorcycle_135" depart="67.50" from="N_out_4_to_J4" to="J3_to_N_out_3" type='motorcycle'/>
    <trip id="motorcycle_136" depart="68.00" from="J9_to_J8" to="J9_to_J8" type='motorcycle'/>
    <trip id="motorcycle_137" depart="68.50" from="J2_to_J5" to="J2_to_J1" type='motorcycle'/>
    <trip id="motorcycle_138" depart="69.00" from="J2_to_J3" to="J5_to_J8" type='motorcycle'/>
    <trip id="motorcycle_139" depart="69.50" from="J4_to_J7" to="J6_to_J5" type='motorcycle'/>
    <trip id="motorcycle_140" depart="70.00" from="N_out_1w_to_J1" to="J2_to_N_out_2" type='motorcycle'/>
    <trip id="motorcycle_141" depart="70.50" from="J9_to_J6" to="J3_to_J6" type='motorcycle'/>
    <trip id="motorcycle_142" depart="71.00" from="J7_to_J4" to="J9_to_J6" type='motorcycle'/>
    <trip id="motorcycle_143" depart="71.50" from="N_out_6_to_J6" to="J1_to_N_out_1w" type='motorcycle'/>
    <trip id="motorcycle_144" depart="72.00" from="J6_to_J5" to="J3_to_J6" type='motorcycle'/>
    <trip id="motorcycle_145" depart="72.50" from="J1_to_J2" to="J7_to_N_out_7s" type='motorcycle'/>
    <trip id="motorcycle_146" depart="73.00" from="J9_to_J6" to="J3_to_J6" type='motorcycle'/>
    <trip id="motorcycle_147" depart="73.50" from="N_out_2_to_J2" to="J5_to_J8" type='motorcycle'/>
    <trip id="motorcycle_148" depart="74.00" from="J6_to_J5" to="J1_to_J2" type='motorcycle'/>
    <trip id="motorcycle_149" depart="74.50" from="J2_to_J1" to="J8_to_N_out_8" type='motorcycle'/>
    <trip id="motorcycle_150" depart="75.00" from="N_out_7s_to_J7" to="J5_to_J8" type='motorcycle'/>
    <trip id="motorcycle_151" depart="75.50" from="N_out_6_to_J6" to="J6_to_J3" type='motorcycle'/>
    <trip id="motorcycle_152" depart="76.00" from="J3_to_J2" to="J2_to_J1" type='motorcycle'/>
    <trip id="motorcycle_153" depart="76.50" from="J5_to_J4" to="J9_to_J6" type='motorcycle'/>
    <trip id="motorcycle_154" depart="77.00" from="N_out_3e_to_J3" to="J8_to_J9" type='motorcycle'/>
    <trip id="motorcycle_155" depart="77.50" from="N_out_7s_to_J7" to="J2_to_N_out_2" type='motorcycle'/>
    <trip id="motorcycle_156" depart="78.00" from="J4_to_J5" to="J1_to_N_out_1w" type='motorcycle'/>
    <trip id="motorcycle_157" depart="78.50" from="N_out_3e_to_J3" to="J8_to_N_out_8" type='motorcycle'/>
    <trip id="motorcycle_158" depart="79.00" from="J6_to_J3" to="J6_to_J9" type='motorcycle'/>
    <trip id="motorcycle_159" depart="79.50" from="J3_to_J2" to="J9_to_J8" type='motorcycle'/>
    <trip id="motorcycle_160" depart="80.00" from="N_out_7_to_J7" to="J9_to_N_out_9s" type='motorcycle'/>
    <trip id="motorcycle_161" depart="80.50" from="N_out_4_to_J4" to="J8_to_N_out_8" type='motorcycle'/>
    <trip id="motorcycle_162" depart="81.00" from="J1_to_J2" to="J7_to_N_out_7" type='motorcycle'/>
    <trip id="motorcycle_163" depart="81.50" from="J5_to_J4" to="J9_to_J8" type='motorcycle'/>
    <trip id="motorcycle_164" depart="82.00" from="N_out_3e_to_J3" to="J8_to_N_out_8" type='motorcycle'/>
    <trip id="motorcycle_165" depart="82.50" from="N_out_4_to_J4" to="J3_to_J6" type='motorcycle'/>
    <trip id="motorcycle_166" depart="83.00" from="N_out_3e_to_J3" to="J1_to_N_out_1w" type='motorcycle'/>
    <trip id="motorcycle_167" depart="83.50" from="N_out_7_to_J7" to="J8_to_J9" type='motorcycle'/>
    <trip id="motorcycle_168" depart="84.00" from="J4_to_J5" to="J8_to_J7" type='motorcycle'/>
    <trip id="motorcycle_169" depart="84.50" from="J6_to_J9" to="J3_to_N_out_3" type='motorcycle'/>
    <trip id="motorcycle_170" depart="85.00" from="N_out_3e_to_J3" to="J3_to_J2" type='motorcycle'/>
    <trip id="motorcycle_171" depart="85.50" from="J1_to_J2" to="J2_to_J5" type='motorcycle'/>
    <trip id="motorcycle_172" depart="86.00" from="J5_to_J4" to="J8_to_N_out_8" type='motorcycle'/>
    <trip id="motorcycle_173" depart="86.50" from="N_out_9_to_J9" to="J3_to_N_out_3" type='motorcycle'/>
    <trip id="motorcycle_174" depart="87.00" from="J9_to_J8" to="J4_to_J7" type='motorcycle'/>
    <trip id="motorcycle_175" depart="87.50" from="N_out_9s_to_J9" to="J5_to_J8" type='motorcycle'/>
    <trip id="motorcycle_176" depart="88.00" from="N_out_8_to_J8" to="J2_to_J1" type='motorcycle'/>
    <trip id="motorcycle_177" depart="88.50" from="N_out_9_to_J9" to="J2_to_J5" type='motorcycle'/>
    <trip id="motorcycle_178" depart="89.00" from="N_out_9_to_J9" to="J3_to_J6" type='motorcycle'/>
    <trip id="motorcycle_179" depart="89.50" from="J2_to_J3" to="J4_to_N_out_4" type='motorcycle'/>
    <trip id="motorcycle_180" depart="90.00" from="N_out_2_to_J2" to="J3_to_N_out_3e" type='motorcycle'/>
    <trip id="motorcycle_181" depart="90.50" from="J8_to_J9" to="J5_to_J6" type='motorcycle'/>
    <trip id="motorcycle_182" depart="91.00" from="J5_to_J8" to="J6_to_J3" type='motorcycle'/>
    <trip id="motorcycle_183" depart="91.50" from="J4_to_J7" to="J7_to_J8" type='motorcycle'/>
    <trip id="motorcycle_184" depart="92.00" from="J1_to_J2" to="J9_to_J8" type='motorcycle'/>
    <trip id="motorcycle_185" depart="92.50" from="J8_to_J5" to="J7_to_J8" type='motorcycle'/>
    <trip id="motorcycle_186" depart="93.00" from="N_out_2_to_J2" to="J7_to_J4" type='motorcycle'/>
    <trip id="motorcycle_187" depart="93.50" from="J5_to_J8" to="J1_to_N_out_1" type='motorcycle'/>
    <trip id="motorcycle_188" depart="94.00" from="J9_to_J8" to="J3_to_N_out_3e" type='motorcycle'/>
    <trip id="motorcycle_189" depart="94.50" from="J5_to_J4" to="J8_to_J9" type='motorcycle'/>
    <trip id="motorcycle_190" depart="95.00" from="N_out_1w_to_J1" to="J3_to_N_out_3" type='motorcycle'/>
    <trip id="motorcycle_191" depart="95.50" from="J5_to_J4" to="J4_to_J7" type='motorcycle'/>
    <trip id="motorcycle_192" depart="96.00" from="J6_to_J3" to="J3_to_N_out_3" type='motorcycle'/>
    <trip id="motorcycle_193" depart="96.50" from="J2_to_J5" to="J4_to_N_out_4" type='motorcycle'/>
    <trip id="motorcycle_194" depart="97.00" from="N_out_8_to_J8" to="J7_to_J4" type='motorcycle'/>
    <trip id="motorcycle_195" depart="97.50" from="N_out_7s_to_J7" to="J6_to_J9" type='motorcycle'/>
    <trip id="motorcycle_196" depart="98.00" from="J5_to_J2" to="J5_to_J8" type='motorcycle'/>
    <trip id="motorcycle_197" depart="98.50" from="J1_to_J2" to="J3_to_N_out_3" type='motorcycle'/>
    <trip id="motorcycle_198" depart="99.00" from="J6_to_J5" to="J6_to_J3" type='motorcycle'/>
    <trip id="motorcycle_199" depart="99.50" from="J9_to_J8" to="J5_to_J2" type='motorcycle'/>
    <trip id="motorcycle_200" depart="100.00" from="J6_to_J5" to="J2_to_N_out_2" type='motorcycle'/>
    <trip id="motorcycle_201" depart="100.50" from="J7_to_J4" to="J9_to_J6" type='motorcycle'/>
    <trip id="motorcycle_202" depart="101.00" from="N_out_3e_to_J3" to="J2_to_J5" type='motorcycle'/>
    <trip id="motorcycle_203" depart="101.50" from="J2_to_J3" to="J5_to_J6" type='motorcycle'/>
    <trip id="motorcycle_204" depart="102.00" from="J9_to_J6" to="J4_to_J1" type='motorcycle'/>
    <trip id="motorcycle_205" depart="102.50" from="N_out_4_to_J4" to="J7_to_N_out_7s" type='motorcycle'/>
    <trip id="motorcycle_206" depart="103.00" from="N_out_1_to_J1" to="J3_to_J2" type='motorcycle'/>
    <trip id="motorcycle_207" depart="103.50" from="J4_to_J1" to="J1_to_J2" type='motorcycle'/>
    <trip id="motorcycle_208" depart="104.00" from="J4_to_J5" to="J5_to_J4" type='motorcycle'/>
    <trip id="motorcycle_209" depart="104.50" from="N_out_6_to_J6" to="J1_to_N_out_1" type='motorcycle'/>
    <trip id="motorcycle_210" depart="105.00" from="J6_to_J3" to="J6_to_J9" type='motorcycle'/>
    <trip id="motorcycle_211" depart="105.50" from="J3_to_J6" to="J7_to_J8" type='motorcycle'/>
    <trip id="motorcycle_212" depart="106.00" from="J7_to_J4" to="J3_to_J2" type='motorcycle'/>
    <trip id="motorcycle_213" depart="106.50" from="J9_to_J8" to="J1_to_J2" type='motorcycle'/>
    <trip id="motorcycle_214" depart="107.00" from="N_out_3_to_J3" to="J7_to_N_out_7s" type='motorcycle'/>
    <trip id="motorcycle_215" depart="107.50" from="J2_to_J3" to="J4_to_N_out_4" type='motorcycle'/>
    <trip id="motorcycle_216" depart="108.00" from="J3_to_J6" to="J9_to_N_out_9" type='motorcycle'/>
    <trip id="motorcycle_217" depart="108.50" from="J7_to_J8" to="J1_to_J4" type='motorcycle'/>
    <trip id="motorcycle_218" depart="109.00" from="J4_to_J5" to="J8_to_J9" type='motorcycle'/>
    <trip id="motorcycle_219" depart="109.50" from="J6_to_J9" to="J8_to_J5" type='motorcycle'/>
    <trip id="motorcycle_220" depart="110.00" from="N_out_1_to_J1" to="J9_to_N_out_9s" type='motorcycle'/>
    <trip id="motorcycle_221" depart="110.50" from="J8_to_J9" to="J9_to_N_out_9" type='motorcycle'/>
    <trip id="motorcycle_222" depart="111.00" from="N_out_7s_to_J7" to="J6_to_J9" type='motorcycle'/>
    <trip id="motorcycle_223" depart="111.50" from="N_out_1w_to_J1" to="J5_to_J6" type='motorcycle'/>
    <trip id="motorcycle_224" depart="112.00" from="N_out_4_to_J4" to="J5_to_J8" type='motorcycle'/>
    <trip id="motorcycle_225" depart="112.50" from="N_out_7s_to_J7" to="J7_to_N_out_7" type='motorcycle'/>
    <trip id="motorcycle_226" depart="113.00" from="J7_to_J4" to="J3_to_J6" type='motorcycle'/>
    <trip id="motorcycle_227" depart="113.50" from="J4_to_J5" to="J6_to_J9" type='motorcycle'/>
    <trip id="motorcycle_228" depart="114.00" from="N_out_3_to_J3" to="J5_to_J6" type='motorcycle'/>
    <trip id="motorcycle_229" depart="114.50" from="J9_to_J6" to="J3_to_J6" type='motorcycle'/>
    <trip id="motorcycle_230" depart="115.00" from="J2_to_J1" to="J3_to_N_out_3" type='motorcycle'/>
    <trip id="motorcycle_231" depart="115.50" from="J4_to_J7" to="J3_to_N_out_3e" type='motorcycle'/>
    <trip id="motorcycle_232" depart="116.00" from="J8_to_J5" to="J2_to_J1" type='motorcycle'/>
    <trip id="motorcycle_233" depart="116.50" from="J4_to_J5" to="J7_to_J4" type='motorcycle'/>
    <trip id="motorcycle_234" depart="117.00" from="N_out_1w_to_J1" to="J1_to_N_out_1" type='motorcycle'/>
    <trip id="motorcycle_235" depart="117.50" from="J6_to_J3" to="J5_to_J8" type='motorcycle'/>
    <trip id="motorcycle_236" depart="118.00" from="J6_to_J3" to="J2_to_N_out_2" type='motorcycle'/>
    <trip id="motorcycle_237" depart="118.50" from="J6_to_J5" to="J9_to_J6" type='motorcycle'/>
    <trip id="motorcycle_238" depart="119.00" from="J8_to_J9" to="J7_to_J8" type='motorcycle'/>
    <trip id="motorcycle_239" depart="119.50" from="N_out_6_to_J6" to="J7_to_N_out_7s" type='motorcycle'/>
    <trip id="motorcycle_240" depart="120.00" from="J5_to_J8" to="J1_to_J2" type='motorcycle'/>
    <trip id="motorcycle_241" depart="120.50" from="J5_to_J6" to="J7_to_N_out_7s" type='motorcycle'/>
    <trip id="motorcycle_242" depart="121.00" from="N_out_6_to_J6" to="J9_to_N_out_9" type='motorcycle'/>
    <trip id="motorcycle_243" depart="121.50" from="J6_to_J5" to="J7_to_N_out_7" type='motorcycle'/>
    <trip id="motorcycle_244" depart="122.00" from="J8_to_J5" to="J6_to_J5" type='motorcycle'/>
    <trip id="motorcycle_245" depart="122.50" from="J4_to_J1" to="J2_to_N_out_2" type='motorcycle'/>
    <trip id="motorcycle_246" depart="123.00" from="J6_to_J5" to="J1_to_J4" type='motorcycle'/>
    <trip id="motorcycle_247" depart="123.50" from="J5_to_J6" to="J7_to_J4" type='motorcycle'/>
    <trip id="motorcycle_248" depart="124.00" from="J6_to_J3" to="J2_to_J3" type='motorcycle'/>
    <trip id="motorcycle_249" depart="124.50" from="J6_to_J9" to="J2_to_J1" type='motorcycle'/>
    <trip id="motorcycle_250" depart="125.00" from="J9_to_J6" to="J1_to_J2" type='motorcycle'/>
    <trip id="motorcycle_251" depart="125.50" from="J6_to_J3" to="J6_to_J3" type='motorcycle'/>
    <trip id="motorcycle_252" depart="126.00" from="J1_to_J2" to="J6_to_N_out_6" type='motorcycle'/>
    <trip id="motorcycle_253" depart="126.50" from="J2_to_J5" to="J5_to_J2" type='motorcycle'/>
    <trip id="motorcycle_254" depart="127.00" from="J1_to_J4" to="J4_to_J5" type='motorcycle'/>
    <trip id="motorcycle_255" depart="127.50" from="J4_to_J1" to="J3_to_N_out_3e" type='motorcycle'/>
    <trip id="motorcycle_256" depart="128.00" from="N_out_3_to_J3" to="J4_to_J5" type='motorcycle'/>
    <trip id="motorcycle_257" depart="128.50" from="N_out_3_to_J3" to="J8_to_J7" type='motorcycle'/>
    <trip id="motorcycle_258" depart="129.00" from="J4_to_J7" to="J1_to_N_out_1" type='motorcycle'/>
    <trip id="motorcycle_259" depart="129.50" from="J1_to_J2" to="J5_to_J8" type='motorcycle'/>
    <trip id="motorcycle_260" depart="130.00" from="N_out_9s_to_J9" to="J4_to_J1" type='motorcycle'/>
    <trip id="motorcycle_261" depart="130.50" from="J9_to_J8" to="J8_to_J5" type='motorcycle'/>
    <trip id="motorcycle_262" depart="131.00" from="J9_to_J8" to="J7_to_N_out_7s" type='motorcycle'/>
    <trip id="motorcycle_263" depart="131.50" from="N_out_9_to_J9" to="J2_to_N_out_2" type='motorcycle'/>
    <trip id="motorcycle_264" depart="132.00" from="J1_to_J2" to="J2_to_J3" type='motorcycle'/>
    <trip id="motorcycle_265" depart="132.50" from="J2_to_J5" to="J7_to_J4" type='motorcycle'/>
    <trip id="motorcycle_266" depart="133.00" from="J8_to_J7" to="J2_to_N_out_2" type='motorcycle'/>
    <trip id="motorcycle_267" depart="133.50" from="N_out_1w_to_J1" to="J7_to_N_out_7s" type='motorcycle'/>
    <trip id="motorcycle_268" depart="134.00" from="J3_to_J6" to="J6_to_J5" type='motorcycle'/>
    <trip id="motorcycle_269" depart="134.50" from="N_out_2_to_J2" to="J2_to_J1" type='motorcycle'/>
    <trip id="motorcycle_270" depart="135.00" from="N_out_4_to_J4" to="J9_to_N_out_9" type='motorcycle'/>
    <trip id="motorcycle_271" depart="135.50" from="J2_to_J3" to="J1_to_J2" type='motorcycle'/>
    <trip id="motorcycle_272" depart="136.00" from="J5_to_J4" to="J7_to_J4" type='motorcycle'/>
    <trip id="motorcycle_273" depart="136.50" from="N_out_9_to_J9" to="J4_to_J7" type='motorcycle'/>
    <trip id="motorcycle_274" depart="137.00" from="N_out_1w_to_J1" to="J1_to_N_out_1" type='motorcycle'/>
    <trip id="motorcycle_275" depart="137.50" from="N_out_1_to_J1" to="J6_to_J9" type='motorcycle'/>
    <trip id="motorcycle_276" depart="138.00" from="J2_to_J3" to="J7_to_N_out_7s" type='motorcycle'/>
    <trip id="motorcycle_277" depart="138.50" from="N_out_6_to_J6" to="J6_to_J5" type='motorcycle'/>
    <trip id="motorcycle_278" depart="139.00" from="J2_to_J5" to="J9_to_N_out_9s" type='motorcycle'/>
    <trip id="motorcycle_279" depart="139.50" from="N_out_3e_to_J3" to="J4_to_J1" type='motorcycle'/>
    <trip id="motorcycle_280" depart="140.00" from="J6_to_J5" to="J4_to_J5" type='motorcycle'/>
    <trip id="motorcycle_281" depart="140.50" from="J7_to_J8" to="J4_to_J1" type='motorcycle'/>
    <trip id="motorcycle_282" depart="141.00" from="N_out_6_to_J6" to="J8_to_J7" type='motorcycle'/>
    <trip id="motorcycle_283" depart="141.50" from="J2_to_J3" to="J9_to_N_out_9" type='motorcycle'/>
    <trip id="motorcycle_284" depart="142.00" from="J9_to_J6" to="J8_to_J7" type='motorcycle'/>
    <trip id="motorcycle_285" depart="142.50" from="N_out_1w_to_J1" to="J4_to_N_out_4" type='motorcycle'/>
    <trip id="motorcycle_286" depart="143.00" from="N_out_2_to_J2" to="J9_to_N_out_9" type='motorcycle'/>
    <trip id="motorcycle_287" depart="143.50" from="J4_to_J7" to="J8_to_J7" type='motorcycle'/>
    <trip id="motorcycle_288" depart="144.00" from="J8_to_J5" to="J5_to_J4" type='motorcycle'/>
    <trip id="motorcycle_289" depart="144.50" from="J6_to_J5" to="J7_to_N_out_7" type='motorcycle'/>
    <trip id="motorcycle_290" depart="145.00" from="J4_to_J7" to="J8_to_J9" type='motorcycle'/>
    <trip id="motorcycle_291" depart="145.50" from="N_out_4_to_J4" to="J1_to_N_out_1w" type='motorcycle'/>
    <trip id="motorcycle_292" depart="146.00" from="N_out_7_to_J7" to="J3_to_J2" type='motorcycle'/>
    <trip id="motorcycle_293" depart="146.50" from="J6_to_J9" to="J6_to_J5" type='motorcycle'/>
    <trip id="motorcycle_294" depart="147.00" from="J5_to_J8" to="J1_to_J4" type='motorcycle'/>
    <trip id="motorcycle_295" depart="147.50" from="N_out_6_to_J6" to="J2_to_J5" type='motorcycle'/>
    <trip id="motorcycle_296" depart="148.00" from="J4_to_J1" to="J8_to_J5" type='motorcycle'/>
    <trip id="motorcycle_297" depart="148.50" from="J5_to_J6" to="J8_to_N_out_8" type='motorcycle'/>
    <trip id="motorcycle_298" depart="149.00" from="N_out_1w_to_J1" to="J3_to_J6" type='motorcycle'/>